Version 4
SHEET 1 880 680
FLAG -432 496 0
SYMBOL res 432 112 R0
SYMATTR InstName R1
SYMBOL res 448 288 R0
SYMATTR InstName R2
SYMBOL res 448 512 R0
SYMATTR InstName R3
SYMBOL PowerProducts\\LT1086-3.3 16 528 R0
SYMATTR InstName U1
SYMBOL PowerProducts\\LTC3310S -192 80 R0
SYMATTR InstName U2
