Version 4
SHEET 1 880 680
WIRE -256 -336 -512 -336
WIRE -80 -336 -256 -336
WIRE -80 -304 -80 -336
WIRE -256 -256 -256 -336
WIRE -240 -256 -256 -256
WIRE 112 -256 80 -256
WIRE 224 -256 192 -256
WIRE -256 -160 -256 -256
WIRE -240 -160 -256 -160
WIRE 112 -160 80 -160
WIRE 224 -160 224 -256
WIRE 224 -160 192 -160
WIRE 352 -160 224 -160
WIRE 432 -160 352 -160
WIRE 736 -160 432 -160
WIRE 352 -144 352 -160
WIRE 432 -144 432 -160
WIRE 736 -144 736 -160
WIRE -512 -128 -512 -336
WIRE -512 -128 -736 -128
WIRE -736 -112 -736 -128
WIRE -320 -64 -336 -64
WIRE -240 -64 -256 -64
WIRE 224 -64 224 -80
WIRE 224 -64 80 -64
WIRE 352 -64 352 -80
WIRE 352 -64 224 -64
WIRE 224 -48 224 -64
WIRE 432 -48 432 -80
WIRE 736 -48 736 -64
WIRE -736 -16 -736 -32
WIRE -368 32 -432 32
WIRE -240 32 -288 32
WIRE 112 32 80 32
WIRE -432 48 -432 32
WIRE 112 48 112 32
WIRE 224 48 224 32
WIRE -144 96 -144 80
WIRE -16 96 -16 80
WIRE -432 128 -432 112
WIRE 112 144 112 128
WIRE -512 304 -512 -128
WIRE -496 304 -512 304
WIRE -176 304 -496 304
WIRE 160 304 80 304
WIRE 576 304 160 304
WIRE 752 304 576 304
WIRE 160 320 160 304
WIRE 576 320 576 304
WIRE 752 320 752 304
WIRE -496 336 -496 304
WIRE 160 416 160 384
WIRE 576 416 576 400
WIRE 752 416 752 400
WIRE -496 432 -496 400
WIRE -48 448 -48 400
FLAG -16 96 0
FLAG -144 96 0
FLAG 736 -48 0
FLAG 224 48 0
FLAG -336 -64 0
FLAG 736 -160 OUT1
FLAG -512 -336 IN
FLAG -432 128 0
FLAG 432 -48 0
FLAG 112 144 0
FLAG 752 304 OUT2
FLAG 752 416 0
FLAG -736 -16 0
FLAG 160 416 0
FLAG -48 448 0
FLAG -736 -128 IN
FLAG 576 416 0
FLAG -496 432 0
SYMBOL ind 96 -144 R270
WINDOW 0 32 56 VTop 2
WINDOW 3 5 56 VBottom 2
SYMATTR InstName L1
SYMATTR Value 220n
SYMATTR SpiceLine Rser=2m
SYMBOL RES 208 -176 R0
SYMATTR InstName R4
SYMATTR Value 200K
SYMBOL res 208 -64 R0
SYMATTR InstName R5
SYMATTR Value 100K
SYMBOL cap 336 -144 R0
SYMATTR InstName C1
SYMATTR Value 15p
SYMBOL res 720 -160 R0
SYMATTR InstName R_core
SYMATTR Value 3
SYMBOL cap -256 -80 R90
WINDOW 0 0 32 VBottom 2
WINDOW 3 32 32 VTop 2
SYMATTR InstName C2
SYMATTR Value 4.7n
SYMBOL LTC3310S -80 -128 R0
SYMATTR InstName U3
SYMBOL cap -448 48 R0
SYMATTR InstName C3
SYMATTR Value 220p
SYMBOL res -272 16 R90
WINDOW 0 0 56 VBottom 2
WINDOW 3 32 56 VTop 2
SYMATTR InstName R6
SYMATTR Value 10K
SYMBOL cap 416 -144 R0
SYMATTR InstName C4
SYMATTR Value 47µ
SYMBOL res 208 -272 R90
WINDOW 0 0 56 VBottom 2
WINDOW 3 32 56 VTop 2
SYMATTR InstName R7
SYMATTR Value 500K
SYMBOL res 96 32 R0
SYMATTR InstName R8
SYMATTR Value 274K
SYMBOL VOLTAGE -736 -128 R0
WINDOW 123 0 0 Left 2
SYMATTR InstName V1
SYMATTR Value 5.5
SYMATTR SpiceLine Rser=0.1
SYMBOL RES 736 304 R0
SYMATTR InstName R_I/O
SYMATTR Value 15
SYMBOL cap 144 320 R0
SYMATTR InstName C5
SYMATTR Value 10µ
SYMBOL PowerProducts\\LT1086-3.3 -48 304 R0
SYMATTR InstName U1
SYMBOL res 560 304 R0
SYMATTR InstName R_sensor
SYMATTR Value 82.5
SYMBOL cap -512 336 R0
SYMATTR InstName C6
SYMATTR Value 20µ
TEXT 542 128 Left 2 !.tran 1
