Version 4
SHEET 1 1224 680
WIRE 48 112 -144 112
WIRE 64 112 48 112
WIRE 384 112 352 112
WIRE 448 112 384 112
WIRE 560 112 448 112
WIRE 704 112 560 112
WIRE -144 128 -144 112
WIRE 448 128 448 112
WIRE 560 128 560 112
WIRE 704 128 704 112
WIRE -144 224 -144 208
WIRE 448 224 448 192
WIRE 560 224 560 208
WIRE 704 224 704 208
WIRE 48 240 48 112
WIRE 64 240 48 240
WIRE 384 240 384 112
WIRE 384 240 352 240
WIRE 208 320 208 304
WIRE 672 448 448 448
WIRE 1008 448 928 448
WIRE 1120 448 1008 448
WIRE 448 464 448 448
WIRE 1008 464 1008 448
WIRE 1120 464 1120 448
WIRE 448 560 448 544
WIRE 1008 560 1008 528
WIRE 1120 560 1120 544
WIRE 800 592 800 544
FLAG 208 320 0
FLAG -144 224 0
FLAG 448 224 0
FLAG 560 224 0
FLAG -144 112 IN
FLAG 560 112 OUT
FLAG 704 224 0
FLAG 1120 448 OUT
FLAG 1120 560 0
FLAG 448 560 0
FLAG 1008 560 0
FLAG 800 592 0
FLAG 448 448 IN
SYMBOL cap 432 128 R0
SYMATTR InstName C1
SYMATTR Value 20µ
SYMBOL voltage -144 112 R0
WINDOW 123 0 0 Left 0
WINDOW 39 0 0 Left 0
SYMATTR InstName V1
SYMATTR Value PWL(0 0 1 5)
SYMBOL res 544 112 R0
SYMATTR InstName Rload
SYMATTR Value 330
SYMBOL PowerProducts\\LT1965-3.3 208 176 R0
SYMATTR InstName U1
SYMBOL current 704 128 R0
WINDOW 123 0 0 Left 0
WINDOW 39 0 0 Left 0
SYMATTR InstName I1
SYMATTR Value PULSE(0 1 1 100n 100n 100u 200u 1)
SYMBOL PowerProducts\\LT1086 224 496 R0
SYMATTR InstName U2
SYMBOL VOLTAGE 448 448 R0
WINDOW 123 0 0 Left 2
SYMATTR InstName V2
SYMATTR Value PWL(0 0 1 10)
SYMATTR SpiceLine Rser=0.1
SYMBOL RES 1104 448 R0
SYMATTR InstName Rload1
SYMATTR Value 10
SYMBOL cap 992 464 R0
SYMATTR InstName C2
SYMATTR Value 10µ
SYMBOL PowerProducts\\LT1086-3.3 800 448 R0
SYMATTR InstName U3
TEXT 400 296 Left 2 !.tran 1.1 startup
TEXT 968 624 Left 2 !.tran 1
