Version 4
SHEET 1 1816 1252
WIRE -432 -336 -512 -336
WIRE -256 -336 -432 -336
WIRE -80 -336 -256 -336
WIRE -80 -304 -80 -336
WIRE -256 -256 -256 -336
WIRE -240 -256 -256 -256
WIRE 112 -256 80 -256
WIRE 224 -256 192 -256
WIRE -256 -160 -256 -256
WIRE -240 -160 -256 -160
WIRE 112 -160 80 -160
WIRE 224 -160 224 -256
WIRE 224 -160 192 -160
WIRE 352 -160 224 -160
WIRE 432 -160 352 -160
WIRE 736 -160 432 -160
WIRE 352 -144 352 -160
WIRE 432 -144 432 -160
WIRE 736 -144 736 -160
WIRE -512 -128 -512 -336
WIRE -512 -128 -1072 -128
WIRE -1072 -112 -1072 -128
WIRE -320 -64 -336 -64
WIRE -240 -64 -256 -64
WIRE 224 -64 224 -80
WIRE 224 -64 80 -64
WIRE 352 -64 352 -80
WIRE 352 -64 224 -64
WIRE 224 -48 224 -64
WIRE 432 -48 432 -80
WIRE 736 -48 736 -64
WIRE -1072 -16 -1072 -32
WIRE -368 32 -432 32
WIRE -240 32 -288 32
WIRE 112 32 80 32
WIRE -432 48 -432 32
WIRE 112 48 112 32
WIRE 224 48 224 32
WIRE -144 96 -144 80
WIRE -16 96 -16 80
WIRE -432 128 -432 112
WIRE 112 144 112 128
WIRE -512 208 -512 -128
WIRE -448 208 -512 208
WIRE -256 208 -448 208
WIRE -80 208 -256 208
WIRE -80 240 -80 208
WIRE -256 288 -256 208
WIRE -240 288 -256 288
WIRE 112 288 80 288
WIRE 224 288 192 288
WIRE -256 384 -256 288
WIRE -240 384 -256 384
WIRE 112 384 80 384
WIRE 224 384 224 288
WIRE 224 384 192 384
WIRE 352 384 224 384
WIRE 432 384 352 384
WIRE 800 384 432 384
WIRE 352 400 352 384
WIRE 432 400 432 384
WIRE 800 400 800 384
WIRE -320 480 -336 480
WIRE -240 480 -256 480
WIRE 224 480 224 464
WIRE 224 480 80 480
WIRE 352 480 352 464
WIRE 352 480 224 480
WIRE 224 496 224 480
WIRE 432 496 432 464
WIRE 800 496 800 480
WIRE -368 576 -432 576
WIRE -240 576 -288 576
WIRE 112 576 80 576
WIRE -432 592 -432 576
WIRE 112 592 112 576
WIRE 224 592 224 576
WIRE -144 640 -144 624
WIRE -16 640 -16 624
WIRE -432 672 -432 656
WIRE 112 688 112 672
WIRE -512 752 -512 208
WIRE -448 752 -512 752
WIRE -240 752 -448 752
WIRE -64 752 -240 752
WIRE -64 784 -64 752
WIRE -240 832 -240 752
WIRE -224 832 -240 832
WIRE 128 832 96 832
WIRE 240 832 208 832
WIRE -240 928 -240 832
WIRE -224 928 -240 928
WIRE 128 928 96 928
WIRE 240 928 240 832
WIRE 240 928 208 928
WIRE 368 928 240 928
WIRE 448 928 368 928
WIRE 656 928 448 928
WIRE 800 928 656 928
WIRE 816 928 800 928
WIRE 1136 928 1104 928
WIRE 1200 928 1136 928
WIRE 1312 928 1200 928
WIRE 368 944 368 928
WIRE 448 944 448 928
WIRE 1200 944 1200 928
WIRE 1312 944 1312 928
WIRE -304 1024 -320 1024
WIRE -224 1024 -240 1024
WIRE 240 1024 240 1008
WIRE 240 1024 96 1024
WIRE 368 1024 368 1008
WIRE 368 1024 240 1024
WIRE 240 1040 240 1024
WIRE 448 1040 448 1008
WIRE 1200 1040 1200 1008
WIRE 1312 1040 1312 1024
WIRE 800 1056 800 928
WIRE 816 1056 800 1056
WIRE 1136 1056 1136 928
WIRE 1136 1056 1104 1056
WIRE -352 1120 -416 1120
WIRE -224 1120 -272 1120
WIRE 128 1120 96 1120
WIRE -416 1136 -416 1120
WIRE 128 1136 128 1120
WIRE 240 1136 240 1120
WIRE 960 1136 960 1120
WIRE -128 1184 -128 1168
WIRE 0 1184 0 1168
WIRE -416 1216 -416 1200
WIRE 128 1232 128 1216
FLAG -16 96 0
FLAG -144 96 0
FLAG 736 -48 0
FLAG 224 48 0
FLAG -336 -64 0
FLAG 736 -160 OUT1
FLAG -512 -336 IN
FLAG -432 128 0
FLAG 432 -48 0
FLAG 112 144 0
FLAG -1072 -16 0
FLAG -1072 -128 IN
FLAG -16 640 0
FLAG -144 640 0
FLAG 800 496 0
FLAG 224 592 0
FLAG -336 480 0
FLAG 800 384 OUT2
FLAG -432 672 0
FLAG 432 496 0
FLAG 112 688 0
FLAG 960 1136 0
FLAG 1200 1040 0
FLAG 1312 1040 0
FLAG 1312 928 OUT3
FLAG 0 1184 0
FLAG -128 1184 0
FLAG 240 1136 0
FLAG -320 1024 0
FLAG -416 1216 0
FLAG 448 1040 0
FLAG 128 1232 0
FLAG -432 -272 0
FLAG -448 272 0
FLAG -448 816 0
FLAG 656 992 0
SYMBOL ind 96 -144 R270
WINDOW 0 32 56 VTop 2
WINDOW 3 5 56 VBottom 2
SYMATTR InstName L1
SYMATTR Value 220n
SYMATTR SpiceLine Rser=2m
SYMBOL RES 208 -176 R0
SYMATTR InstName R2
SYMATTR Value 200K
SYMBOL res 208 -64 R0
SYMATTR InstName R3
SYMATTR Value 100K
SYMBOL cap 336 -144 R0
SYMATTR InstName C1
SYMATTR Value 15p
SYMBOL res 720 -160 R0
SYMATTR InstName R_core
SYMATTR Value 3
SYMBOL cap -256 -80 R90
WINDOW 0 0 32 VBottom 2
WINDOW 3 32 32 VTop 2
SYMATTR InstName C3
SYMATTR Value 4.7n
SYMBOL LTC3310S -80 -128 R0
SYMATTR InstName U1
SYMBOL cap -448 48 R0
SYMATTR InstName C4
SYMATTR Value 220p
SYMBOL res -272 16 R90
WINDOW 0 0 56 VBottom 2
WINDOW 3 32 56 VTop 2
SYMATTR InstName R4
SYMATTR Value 10K
SYMBOL cap 416 -144 R0
SYMATTR InstName C2
SYMATTR Value 47µ
SYMBOL res 208 -272 R90
WINDOW 0 0 56 VBottom 2
WINDOW 3 32 56 VTop 2
SYMATTR InstName R1
SYMATTR Value 500K
SYMBOL res 96 32 R0
SYMATTR InstName R5
SYMATTR Value 274K
SYMBOL VOLTAGE -1072 -128 R0
WINDOW 123 0 0 Left 2
SYMATTR InstName V1
SYMATTR Value 5.5
SYMATTR SpiceLine Rser=0.1
SYMBOL ind 96 400 R270
WINDOW 0 32 56 VTop 2
WINDOW 3 5 56 VBottom 2
SYMATTR InstName L2
SYMATTR Value 220n
SYMATTR SpiceLine Rser=2m
SYMBOL RES 208 368 R0
SYMATTR InstName R7
SYMATTR Value 560K
SYMBOL res 208 480 R0
SYMATTR InstName R8
SYMATTR Value 100K
SYMBOL cap 336 400 R0
SYMATTR InstName C5
SYMATTR Value 15p
SYMBOL res 784 384 R0
SYMATTR InstName R_I/O
SYMATTR Value 15
SYMBOL cap -256 464 R90
WINDOW 0 0 32 VBottom 2
WINDOW 3 32 32 VTop 2
SYMATTR InstName C7
SYMATTR Value 4.7n
SYMBOL LTC3310S -80 416 R0
SYMATTR InstName U2
SYMBOL cap -448 592 R0
SYMATTR InstName C8
SYMATTR Value 220p
SYMBOL res -272 560 R90
WINDOW 0 0 56 VBottom 2
WINDOW 3 32 56 VTop 2
SYMATTR InstName R9
SYMATTR Value 10K
SYMBOL cap 416 400 R0
SYMATTR InstName C6
SYMATTR Value 47µ
SYMBOL res 208 272 R90
WINDOW 0 0 56 VBottom 2
WINDOW 3 32 56 VTop 2
SYMATTR InstName R6
SYMATTR Value 500K
SYMBOL res 96 576 R0
SYMATTR InstName R10
SYMATTR Value 274K
SYMBOL cap 1184 944 R0
SYMATTR InstName C9
SYMATTR Value 20µ
SYMBOL res 1296 928 R0
SYMATTR InstName R_sensor
SYMATTR Value 82.5
SYMBOL PowerProducts\\LT1965-3.3 960 992 R0
SYMATTR InstName U4
SYMBOL ind 112 944 R270
WINDOW 0 32 56 VTop 2
WINDOW 3 5 56 VBottom 2
SYMATTR InstName L3
SYMATTR Value 220n
SYMATTR SpiceLine Rser=2m
SYMBOL RES 224 912 R0
SYMATTR InstName R12
SYMATTR Value 600K
SYMBOL res 224 1024 R0
SYMATTR InstName R13
SYMATTR Value 100K
SYMBOL cap 352 944 R0
SYMATTR InstName C10
SYMATTR Value 15p
SYMBOL cap -240 1008 R90
WINDOW 0 0 32 VBottom 2
WINDOW 3 32 32 VTop 2
SYMATTR InstName C11
SYMATTR Value 4.7n
SYMBOL LTC3310S -64 960 R0
SYMATTR InstName U3
SYMBOL cap -432 1136 R0
SYMATTR InstName C12
SYMATTR Value 220p
SYMBOL res -256 1104 R90
WINDOW 0 0 56 VBottom 2
WINDOW 3 32 56 VTop 2
SYMATTR InstName R14
SYMATTR Value 10K
SYMBOL cap 432 944 R0
SYMATTR InstName C13
SYMATTR Value 47µ
SYMBOL res 224 816 R90
WINDOW 0 0 56 VBottom 2
WINDOW 3 32 56 VTop 2
SYMATTR InstName R15
SYMATTR Value 500K
SYMBOL res 112 1120 R0
SYMATTR InstName R16
SYMATTR Value 274K
SYMBOL cap -448 -336 R0
SYMATTR InstName C14
SYMATTR Value 10µ
SYMBOL cap -464 208 R0
SYMATTR InstName C15
SYMATTR Value 10µ
SYMBOL cap -464 752 R0
SYMATTR InstName C16
SYMATTR Value 10µ
SYMBOL cap 640 928 R0
SYMATTR InstName C17
SYMATTR Value 10µ
TEXT -1088 128 Left 2 !.tran 200u
